hist_mfilt = 1
hist_nhtfrq = 0
suplphos = 'ALL'
fsurdat = '/global/cscratch1/sd/yazbeck/acme_scratch/cori-knl/user_data/surfdata_sparse_grids_Theresia_1site_c211015.nc'
