&elm_inparm
 albice = 0.60,0.40
 co2_ppmv = 284.7
 co2_type = 'constant'
 create_crop_landunit = .false.
 do_budgets = .true.
 dtime = 3600
 fatmlndfrc = '/global/cscratch1/sd/yazbeck/acme_scratch/cori-knl/user_data//domain_sparse_grids_Theresia_1site_c211015.nc'
 finidat = ' '
 fsnowaging = '/global/cfs/cdirs/e3sm/inputdata/lnd/clm2/snicardata/snicar_drdt_bst_fit_60_c070416.nc'
 fsnowoptics = '/global/cfs/cdirs/e3sm/inputdata/lnd/clm2/snicardata/snicar_optics_5bnd_mam_c160322.nc'
 fsoilordercon = '/global/cfs/cdirs/e3sm/inputdata/lnd/clm2/paramdata/CNP_parameters_c180312.nc'
 fsurdat = '/global/cscratch1/sd/yazbeck/acme_scratch/cori-knl/user_data/surfdata_sparse_grids_Theresia_1site_c211015.nc'
 hist_mfilt = 1
 hist_nhtfrq = 0
 maxpatch_glcmec = 0
 maxpatch_pft = 17
 more_vertlayers = .false.
 nfix_ptase_plant = .true.
 nsegspc = 20
 nu_com = 'ECA'
 paramfile = '/global/cfs/cdirs/e3sm/inputdata/lnd/clm2/paramdata/clm_params.cbgc.c07292018.nc'
 spinup_state = 1
 suplnitro = 'NONE'
 suplphos = 'ALL'
 urban_hac = 'ON'
 urban_traffic = .false.
 use_century_decomp = .true.
 use_cn = .true.
 use_crop = .false.
 use_dynroot = .false.
 use_fates = .false.
 use_lch4 = .true.
 use_snicar_ad = .true.
 use_vertsoilc = .true.
/
&ndepdyn_nml
 ndepmapalgo = 'nn'
 stream_fldfilename_ndep = '/global/cfs/cdirs/e3sm/inputdata/lnd/clm2/ndepdata/fndep_clm_hist_simyr1849-2006_1.9x2.5_c100428.nc'
 stream_year_first_ndep = 1850
 stream_year_last_ndep = 1850
/
&pdepdyn_nml
 pdepmapalgo = 'nn'
 stream_fldfilename_pdep = '/global/cfs/cdirs/e3sm/inputdata/lnd/clm2/pdepdata/fpdep_clm_hist_simyr2000_1.9x2.5_c150929.nc'
 stream_year_first_pdep = 2000
 stream_year_last_pdep = 2000
/
&popd_streams
 popdensmapalgo = 'nn'
 stream_fldfilename_popdens = '/global/cfs/cdirs/e3sm/inputdata/lnd/clm2/firedata/clmforc.Li_2012_hdm_0.5x0.5_AVHRR_simyr1850-2010_c130401.nc'
 stream_year_first_popdens = 1850
 stream_year_last_popdens = 1850
/
&light_streams
 lightngmapalgo = 'nn'
 stream_fldfilename_lightng = '/global/cfs/cdirs/e3sm/inputdata/atm/datm7/NASA_LIS/clmforc.Li_2012_climo1995-2011.T62.lnfm_Total_c140423.nc'
 stream_year_first_lightng = 0001
 stream_year_last_lightng = 0001
/
&lai_streams
/
&elm_canopyhydrology_inparm
/
&elm_soilhydrology_inparm
/
&dynamic_subgrid
/
&finidat_consistency_checks
/
&dynpft_consistency_checks
/
&elmu_inparm
/
&elm_soilstate_inparm
/
&elm_pflotran_inparm
/
&betr_inparm
/
&ch4par_in
 fin_use_fsat = .true.
 use_aereoxid_prog = .true.
/
&elm_humanindex_inparm
/
!#--------------------------------------------------------------------------------------------------------------------------
!# lnd_in:: Comment:
!# This namelist was created using the following command-line:
!#     /global/u1/y/yazbeck/E3SM_code/components/elm/bld/CLM build-namelist -infile /global/cscratch1/sd/yazbeck/test_case_site_v3/Buildconf/elmconf/namelist -csmdata /global/cfs/cdirs/e3sm/inputdata -inputdata /global/cscratch1/sd/yazbeck/test_case_site_v3/Buildconf/elm.input_data_list -ignore_ic_year -namelist  &elm_inparm  start_ymd=00010101  / -use_case 1850_control -res 1x1_brazil -clm_start_type default -envxml_dir /global/cscratch1/sd/yazbeck/test_case_site_v3 -l_ncpl 24 -lnd_frac /global/cscratch1/sd/yazbeck/acme_scratch/cori-knl/user_data//domain_sparse_grids_Theresia_1site_c211015.nc -glc_nec 0 -co2_ppmv 284.7 -co2_type constant -ncpl_base_period day -config /global/cscratch1/sd/yazbeck/test_case_site_v3/Buildconf/elmconf/config_cache.xml -bgc bgc -nutrient cnp -nutrient_comp_pathway eca -soil_decomp century -bgc_spinup on
!# For help on options use: /global/u1/y/yazbeck/E3SM_code/components/elm/bld/CLM build-namelist -help
!#--------------------------------------------------------------------------------------------------------------------------
